/*--------------------------------*- C++ -*----------------------------------*\
| =========                 |                                                 |
| \\      /  F ield         | OpenFOAM: The Open Source CFD Toolbox           |
|  \\    /   O peration     | Version:  v2412                                 |
|   \\  /    A nd           | Website:  www.openfoam.org                      |
|    \\/     M anipulation  |                                                 |
\*---------------------------------------------------------------------------*/
FoamFile
{
    version     2.0;
    format      ascii;
    class       dictionary;
    object      topoSetDict;
}
// * * * * * * * * * * * * * * * * * * * * * * * * * * * * * * * * * * * * * //

actions
(
    // Select cells in building region
    {
        name    buildingCells;
        type    cellSet;
        action  new;
        source  boxToCell;
        sourceInfo
        {
            box (-0.1 -0.1 -0.1) (10.1 10.1 10.1);
        }
    }
    
    // Remove building cells from mesh
    {
        name    buildingCells;
        type    cellSet;
        action  invert;
    }
);

// ************************************************************************* //