/*--------------------------------*- C++ -*----------------------------------*\
| =========                 |                                                 |
| \\      /  F ield         | OpenFOAM: The Open Source CFD Toolbox           |
|  \\    /   O peration     | Version:  2412                                  |
|   \\  /    A nd           | Website:  www.openfoam.com                      |
|    \\/     M anipulation  |                                                 |
\*---------------------------------------------------------------------------*/
// * * * * * * * * * * * * * * * * * * * * * * * * * * * * * * * * * * * * * //
FoamFile
{
    version         2;
    format          ascii;
    arch            "LSB;label=32;scalar=64";
    class           volScalarField;
    location        "0";
    object          nut;
}

dimensions      [ 0 2 -1 0 0 0 0 ];

internalField   uniform 0;

boundaryField
{
    inlet
    {
        type            calculated;
        value           uniform 0;
    }
    outlet
    {
        type            calculated;
        value           uniform 0;
    }
    ground
    {
        type            nutkWallFunction;
        value           uniform 0;
    }
    top
    {
        type            calculated;
        value           uniform 0;
    }
    sideY1
    {
        type            symmetryPlane;
    }
    sideY2
    {
        type            symmetryPlane;
    }
    oldInternalFaces
    {
        type            empty;
    }
    building
    {
        type            zeroGradient;
    }
}


// ************************************************************************* //
