/*--------------------------------*- C++ -*----------------------------------*\
| =========                 |                                                 |
| \\      /  F ield         | OpenFOAM: The Open Source CFD Toolbox           |
|  \\    /   O peration     | Version:  v2412                                 |
|   \\  /    A nd           | Website:  www.OpenFOAM.org                      |
|    \\/     M anipulation  |                                                 |
\*---------------------------------------------------------------------------*/
FoamFile
{
    version     2.0;
    format      ascii;
    class       dictionary;
    location    "system";
    object      fvSolution;
}
// * * * * * * * * * * * * * * * * * * * * * * * * * * * * * * * * * * * * * //

solvers
{
    p_rgh
    {
        solver          GAMG;
        tolerance       1e-08;
        relTol          0.01;
        smoother        GaussSeidel;
        nCellsInCoarsestLevel 20;
    }

    "(U|h|e|k|epsilon)"
    {
        solver          PBiCGStab;
        preconditioner  DILU;
        tolerance       1e-08;
        relTol          0.1;
    }
}

SIMPLE
{
    nNonOrthogonalCorrectors 0;
    
    pRefCell        0;
    pRefValue       101325;
    
    residualControl
    {
        p_rgh           1e-4;
        U               1e-4;
        h               1e-4;
    }
}

relaxationFactors
{
    fields
    {
        rho             table ((0 0.0007) (50 0.07) (100 0.5) (200 0.7));
        p_rgh           table ((0 0.000001) (50 0.01) (100 0.3) (200 0.7));
    }
    
    equations
    {
        U               0.3;
        h               table ((0 0.01) (50 0.1) (100 0.3) (200 0.7));
        "(k|epsilon)"   0.7;
    }
}

// ************************************************************************* //
