FoamFile
{
    version     2.0;
    format      ascii;
    class       volScalarField;
    object      MRT;
}

dimensions      [0 0 0 1 0 0 0];

internalField   uniform 300;

boundaryField
{
    walls
    {
        type            fixedValue;
        value           uniform 300;
    }
}