FoamFile
{
    version     2.0;
    format      ascii;
    class       volVectorField;
    object      U;
}

dimensions      [0 1 -1 0 0 0 0];

internalField   uniform (0.1 0 0);  // 0.1 m/s velocity

boundaryField
{
    walls
    {
        type            fixedValue;
        value           uniform (0 0 0);
    }
}