FoamFile
{
    version     2.0;
    format      ascii;
    class       volScalarField;
    location    "0";
    object      relHum;
}

dimensions      [0 0 0 0 0 0 0];

internalField   uniform 0.5;  // 50% relative humidity

boundaryField
{
    walls
    {
        type            fixedValue;
        value           uniform 0.5;
    }
}