/*--------------------------------*- C++ -*----------------------------------*\
| =========                 |                                                 |
| \\      /  F ield         | OpenFOAM: The Open Source CFD Toolbox           |
|  \\    /   O peration     | Version:  v2412                                 |
|   \\  /    A nd           | Website:  www.openfoam.com                      |
|    \\/     M anipulation  |                                                 |
\*---------------------------------------------------------------------------*/
FoamFile
{
    version     2.0;
    format      ascii;
    class       dictionary;
    object      blockMeshDict;
}
// * * * * * * * * * * * * * * * * * * * * * * * * * * * * * * * * * * * * * //

scale   1;

vertices
(
    (0 0 0)      // 0
    (4 0 0)      // 1
    (4 3 0)      // 2
    (0 3 0)      // 3
    (0 0 2.5)    // 4
    (4 0 2.5)    // 5
    (4 3 2.5)    // 6
    (0 3 2.5)    // 7
);

blocks
(
    hex (0 1 2 3 4 5 6 7) (40 30 25) simpleGrading (1 1 1)
);

edges
(
);

boundary
(
    inlet
    {
        type patch;
        faces
        (
            (3 7 6 2)
        );
    }
    
    outlet
    {
        type patch;
        faces
        (
            (0 4 5 1)
        );
    }
    
    walls
    {
        type wall;
        faces
        (
            (0 3 2 1)    // floor
            (4 5 6 7)    // ceiling
            (0 1 5 4)    // front
            (7 3 0 4)    // left
            (1 2 6 5)    // right
        );
    }
);

// ************************************************************************* //